scratch/greDemo/GridLabD Conversion/SUB 10.glm
///////////////////////////////////////////////////////; 
// This glm created by 'Milsoft to GridLabD Export'. //; 
//             Wed May 21 16:25:12 2014              //; 
///////////////////////////////////////////////////////; 

clock { timestamp '2000-01-01 00:00:00'; } 

module powerflow{ solver_method FBS; } 
// Note: Number Of Looped Switches in WindMil = 0 

object node {
          name            SUB 10; 
          phases          ABCN; 
          bustype         PQ; 
          voltage_A       +7200+0j; 
          voltage_B       -3600-6235.3828j; 
          voltage_C       -3600+6235.3828j; 
          nominal_voltage 7200; 
          } 

object node {name   span_54513_n; phases AN; nominal_voltage 7200;  } 

object overhead_line {
          name   span_54513; 
          from   span_42019_n; 
          to     span_54513_n; 
          phases AN; 
          length 888; 
          configuration SystemCnstDefaultAN__6 FCWC; 
          } 

object node {name   span_42021_n; phases AN; nominal_voltage 119.99999;  } 

object overhead_line {
          name   span_42021; 
          from   T4989043_n; 
          to     span_42021_n; 
          phases AN; 
          length 112.75966; 
          configuration SystemCnstDefaultAN__1/0 Triplex; 
          } 

object node {name   T4989043_n; phases AN; nominal_voltage 119.99999;  } 

object transformer {
          name   T4989043; 
          from   span_42019_n; 
          to     T4989043_n; 
          phases AN; 
          configuration SINGLE_PHASE-_10-7200To120V; 
          } 

object node {name   span_42019_n; phases AN; nominal_voltage 7200;  } 

object overhead_line {
          name   span_42019; 
          from   span_3598_n; 
          to     span_42019_n; 
          phases AN; 
          length 808.26416; 
          configuration SystemCnstDefaultAN__6 FCWC; 
          } 

object node {name   span_42017_n; phases AN; nominal_voltage 120;  } 

object overhead_line {
          name   span_42017; 
          from   T4989036_n; 
          to     span_42017_n; 
          phases AN; 
          length 95.184311; 
          configuration SystemCnstDefaultAN__1/0 Triplex; 
          } 

object node {name   T4989036_n; phases AN; nominal_voltage 120;  } 

object transformer {
          name   T4989036; 
          from   span_802_n; 
          to     T4989036_n; 
          phases AN; 
          configuration SINGLE_PHASE-_10-7200To120V; 
          } 

object node {name   span_802_n; phases AN; nominal_voltage 7200;  } 

object overhead_line {
          name   span_802; 
          from   span_3598_n; 
          to     span_802_n; 
          phases AN; 
          length 122.39182; 
          configuration SystemCnstDefaultAN__6 FCWC; 
          } 

object node {name   span_42018_n; phases AN; nominal_voltage 119.99999;  } 

object overhead_line {
          name   span_42018; 
          from   T4989037_n; 
          to     span_42018_n; 
          phases AN; 
          length 74.220688; 
          configuration SystemCnstDefaultAN__1/0 Triplex; 
          } 

object node {name   T4989037_n; phases AN; nominal_voltage 119.99999;  } 

object transformer {
          name   T4989037; 
          from   span_803_n; 
          to     T4989037_n; 
          phases AN; 
          configuration SINGLE_PHASE-_5-7200To120V; 
          } 

object node {name   span_803_n; phases AN; nominal_voltage 7200;  } 

object overhead_line {
          name   span_803; 
          from   span_3598_n; 
          to     span_803_n; 
          phases AN; 
          length 1086.9344; 
          configuration SystemCnstDefaultAN__6 FCWC; 
          } 

object node {name   span_3598_n; phases AN; nominal_voltage 7200;  } 

object overhead_line {
          name   span_3598; 
          from   F49-26-5_n; 
          to     span_3598_n; 
          phases AN; 
          length 122.30323; 
          configuration SystemCnstDefaultAN__6 FCWC; 
          } 

object node {name   F49-26-5_n; phases AN; nominal_voltage 7200;  } 

object fuse {
          name          F49-26-5; 
          from          span_1440_n; 
          to            F49-26-5_n; 
          phases        AN; 
          current_limit 119.95905; 
          mean_replacement_time 1.0 ; 
          repair_dist_type      NONE; 
          } 

object node {name   span_1440_n; phases AN; nominal_voltage 7200;  } 

object overhead_line {
          name   span_1440; 
          from   span_43704_n; 
          to     span_1440_n; 
          phases AN; 
          length 66.439171; 
          configuration SystemCnstDefaultAN__6 FCWC; 
          } 

object node {name   span_43704_n; phases AN; nominal_voltage 7200;  } 

object overhead_line {
          name   span_43704; 
          from   span_49249_n; 
          to     span_43704_n; 
          phases AN; 
          length 22.654594; 
          configuration SystemCnstDefaultAN__6 FCWC; 
          } 

object node {name   span_49249_n; phases AN; nominal_voltage 7200;  } 

object overhead_line {
          name   span_49249; 
          from   span_1502_n; 
          to     span_49249_n; 
          phases AN; 
          length 52.571682; 
          configuration SystemCnstDefaultAN__4 AC; 
          } 

object node {name   span_1502_n; phases ABCN; nominal_voltage 7200;  } 

object overhead_line {
          name   span_1502; 
          from   span_45929_n; 
          to     span_1502_n; 
          phases ABCN; 
          length 88.16362; 
          configuration SystemCnstDefaultABCN__4/0 AC; 
          } 

object node {name   span_45929_n; phases ABCN; nominal_voltage 7200;  } 

object overhead_line {
          name   span_45929; 
          from   span_45928_n; 
          to     span_45929_n; 
          phases ABCN; 
          length 45.746689; 
          configuration SystemCnstDefaultABCN__4/0 AC; 
          } 

object node {name   span_45928_n; phases ABCN; nominal_voltage 7200;  } 

object overhead_line {
          name   span_45928; 
          from   span_14349_n; 
          to     span_45928_n; 
          phases ABCN; 
          length 118; 
          configuration SystemCnstDefaultABCN__4/0 AC; 
          } 

object node {name   span_14349_n; phases ABCN; nominal_voltage 7200;  } 

object underground_line {
          name   span_14349; 
          from   WL CKT 3 OCR_n; 
          to     span_14349_n; 
          phases ABCN; 
          length 3924.5237; 
          configuration SystemCnstDefaultABC__4/0 URD; 
          } 

object node {name   WL CKT 3 OCR_n; phases ABCN; nominal_voltage 7200;  } 

object recloser {
          name                WL CKT 3 OCR; 
          from                SUB 10; 
          to                  WL CKT 3 OCR_n; 
          phases              ABCN; 
          max_number_of_tries 0; 
          } 

object underground_line {
          name   span_41235; 
          from   span_12275_n; 
          to     span_41235_n; 
          phases AN; 
          length 94.120018; 
          configuration SystemCnstDefaultA__4/0AL UG; 
          } 

object node {name   span_41235_n; phases AN; nominal_voltage 120;  } 

object underground_line {
          name   span_23713; 
          from   span_12275_n; 
          to     span_23713_n; 
          phases AN; 
          length 160.17517; 
          configuration SystemCnstDefaultA__4/0AL UG; 
          } 

object node {name   span_23713_n; phases AN; nominal_voltage 120;  } 

object underground_line {
          name   span_14973; 
          from   span_7477_n; 
          to     span_14973_n; 
          phases AN; 
          length 153.51497; 
          configuration SystemCnstDefaultA__1/0 URD; 
          } 

object node {name   span_14973_n; phases AN; nominal_voltage 7200;  } 

object transformer {
          name   T4979006; 
          from   span_14973_n; 
          to     T4979006_n; 
          phases AN; 
          configuration SINGLE_PHASE-_15-7200To120V; 
          } 

object node {name   T4979006_n; phases AN; nominal_voltage 120;  } 

object underground_line {
          name   span_23711; 
          from   T4979006_n; 
          to     span_23711_n; 
          phases AN; 
          length 69.056709; 
          configuration SystemCnstDefaultA__4/0AL UG; 
          } 

object node {name   span_23711_n; phases AN; nominal_voltage 120;  } 

object underground_line {
          name   span_23712; 
          from   T4979006_n; 
          to     span_23712_n; 
          phases AN; 
          length 69.070229; 
          configuration SystemCnstDefaultA__4/0AL UG; 
          } 

object node {name   span_23712_n; phases AN; nominal_voltage 120;  } 

object transformer {
          name   T4979012; 
          from   span_41221_n; 
          to     T4979012_n; 
          phases AN; 
          configuration SINGLE_PHASE-_15-7200To120V; 
          } 

object node {name   T4979012_n; phases AN; nominal_voltage 120;  } 

object overhead_line {
          name   span_41223; 
          from   T4979012_n; 
          to     span_41223_n; 
          phases AN; 
          length 134.87073; 
          configuration SystemCnstDefaultAN__1/0 Triplex; 
          } 

object node {name   span_41223_n; phases AN; nominal_voltage 120;  } 

object overhead_line {
          name   span_41224; 
          from   T4979012_n; 
          to     span_41224_n; 
          phases AN; 
          length 125.36272; 
          configuration SystemCnstDefaultAN__1/0 Triplex; 
          } 

object node {name   span_41224_n; phases AN; nominal_voltage 120;  } 

object transformer {
          name   T4979022; 
          from   span_41207_n; 
          to     T4979022_n; 
          phases AN; 
          configuration SINGLE_PHASE-_15-7200To120V; 
          } 

object node {name   T4979022_n; phases AN; nominal_voltage 120;  } 

object overhead_line {
          name   span_63157; 
          from   T4979022_n; 
          to     span_63157_n; 
          phases AN; 
          length 79; 
          configuration SystemCnstDefaultAN__1/0 Triplex; 
          } 

object node {name   span_63157_n; phases AN; nominal_voltage 120;  } 

object underground_line {
          name   span_63160; 
          from   serv_28774_n; 
          to     span_63160_n; 
          phases AN; 
          length 20.386084; 
          configuration SystemCnstDefaultA__4/0AL UG; 
          } 

object node {name   span_63160_n; phases AN; nominal_voltage 120;  } 

object overhead_line {
          name   span_63156; 
          from   T4979022_n; 
          to     span_63156_n; 
          phases AN; 
          length 127; 
          configuration SystemCnstDefaultAN__1/0 Triplex; 
          } 

object node {name   span_63156_n; phases AN; nominal_voltage 120;  } 

object underground_line {
          name   span_63159; 
          from   serv_28775_n; 
          to     span_63159_n; 
          phases AN; 
          length 66.109032; 
          configuration SystemCnstDefaultA__4/0AL UG; 
          } 

object node {name   span_63159_n; phases AN; nominal_voltage 120;  } 

object overhead_line {
          name   span_63161; 
          from   span_63156_n; 
          to     span_63161_n; 
          phases AN; 
          length 62.569611; 
          configuration SystemCnstDefaultAN__1/0 Triplex; 
          } 

object node {name   span_63161_n; phases AN; nominal_voltage 120;  } 

object underground_line {
          name   span_63158; 
          from   serv_28776_n; 
          to     span_63158_n; 
          phases AN; 
          length 65.086334; 
          configuration SystemCnstDefaultA__4/0AL UG; 
          } 

object node {name   span_63158_n; phases AN; nominal_voltage 120;  } 

object transformer {
          name   T4987007; 
          from   span_41204_n; 
          to     T4987007_n; 
          phases AN; 
          configuration SINGLE_PHASE-_15-7200To120V; 
          } 

object node {name   T4987007_n; phases AN; nominal_voltage 120;  } 

object overhead_line {
          name   span_41206; 
          from   T4987007_n; 
          to     span_41206_n; 
          phases AN; 
          length 61.2402; 
          configuration SystemCnstDefaultAN__1/0 Triplex; 
          } 

object node {name   span_41206_n; phases AN; nominal_voltage 120;  } 

object overhead_line {
          name   span_41205; 
          from   T4987007_n; 
          to     span_41205_n; 
          phases AN; 
          length 73.868149; 
          configuration SystemCnstDefaultAN__1/0 Triplex; 
          } 

object node {name   span_41205_n; phases AN; nominal_voltage 120;  } 

object transformer {
          name   T4987006; 
          from   span_41202_n; 
          to     T4987006_n; 
          phases AN; 
          configuration SINGLE_PHASE-_15-7200To120V; 
          } 

object node {name   T4987006_n; phases AN; nominal_voltage 120;  } 

object overhead_line {
          name   span_41203; 
          from   T4987006_n; 
          to     span_41203_n; 
          phases AN; 
          length 53.162369; 
          configuration SystemCnstDefaultAN__1/0 Triplex; 
          } 

object node {name   span_41203_n; phases AN; nominal_voltage 120;  } 

object transformer {
          name   T4987013; 
          from   span_49196_n; 
          to     T4987013_n; 
          phases AN; 
          configuration SINGLE_PHASE-_15-7200To120V; 
          } 

object node {name   T4987013_n; phases AN; nominal_voltage 120;  } 

object overhead_line {
          name   span_41198; 
          from   T4987013_n; 
          to     span_41198_n; 
          phases AN; 
          length 73.374062; 
          configuration SystemCnstDefaultAN__1/0 Triplex; 
          } 

object node {name   span_41198_n; phases AN; nominal_voltage 120;  } 

object transformer {
          name   T4988023; 
          from   span_41195_n; 
          to     T4988023_n; 
          phases AN; 
          configuration SINGLE_PHASE-_15-7200To120V; 
          } 

object node {name   T4988023_n; phases AN; nominal_voltage 120;  } 

object overhead_line {
          name   span_41196; 
          from   T4988023_n; 
          to     span_41196_n; 
          phases AN; 
          length 67.118828; 
          configuration SystemCnstDefaultAN__1/0 Triplex; 
          } 

object node {name   span_41196_n; phases AN; nominal_voltage 120;  } 

object transformer {
          name   T4988002; 
          from   span_41193_n; 
          to     T4988002_n; 
          phases AN; 
          configuration SINGLE_PHASE-_15-7200To120V; 
          } 

object node {name   T4988002_n; phases AN; nominal_voltage 120;  } 

object overhead_line {
          name   span_41194; 
          from   T4988002_n; 
          to     span_41194_n; 
          phases AN; 
          length 100.4103; 
          configuration SystemCnstDefaultAN__1/0 Triplex; 
          } 

object node {name   span_41194_n; phases AN; nominal_voltage 120;  } 

object overhead_line {
          name   span_627; 
          from   span_12142_n; 
          to     span_627_n; 
          phases ABCN; 
          length 92.924515; 
          configuration SystemCnstDefaultABCN__4/0 AC; 
          } 

object node {name   span_627_n; phases ABCN; nominal_voltage 7200;  } 

object underground_line {
          name   span_20920; 
          from   span_627_n; 
          to     span_20920_n; 
          phases ABCN; 
          length 2589.8999; 
          configuration SystemCnstDefaultABC__4/0 URD; 
          } 

object node {name   span_20920_n; phases ABCN; nominal_voltage 7200;  } 

object underground_line {
          name   span_20919; 
          from   span_20920_n; 
          to     span_20919_n; 
          phases ABCN; 
          length 161.06581; 
          configuration SystemCnstDefaultABC__4/0 URD; 
          } 

object node {name   span_20919_n; phases ABCN; nominal_voltage 7200;  } 

object overhead_line {
          name   span_3642; 
          from   span_20919_n; 
          to     span_3642_n; 
          phases ABCN; 
          length 859.83582; 
          configuration SystemCnstDefaultABCN__4/0 AC; 
          } 

object node {name   span_3642_n; phases ABCN; nominal_voltage 7200;  } 

object overhead_line {
          name   span_3644; 
          from   span_3642_n; 
          to     span_3644_n; 
          phases ABCN; 
          length 46.60574; 
          configuration SystemCnstDefaultABCN__4/0 AC; 
          } 

object node {name   span_3644_n; phases ABCN; nominal_voltage 7200;  } 

object overhead_line {
          name   span_12130; 
          from   span_3644_n; 
          to     span_12130_n; 
          phases ABCN; 
          length 251.47612; 
          configuration SystemCnstDefaultABCN__4/0 AC; 
          } 

object node {name   span_12130_n; phases ABCN; nominal_voltage 7200;  } 

object overhead_line {
          name   span_12131; 
          from   span_12130_n; 
          to     span_12131_n; 
          phases ABCN; 
          length 771.40973; 
          configuration SystemCnstDefaultABCN__4/0 AC; 
          } 

object node {name   span_12131_n; phases ABCN; nominal_voltage 7200;  } 

object overhead_line {
          name   span_3648; 
          from   span_12131_n; 
          to     span_3648_n; 
          phases ABCN; 
          length 520.39038; 
          configuration SystemCnstDefaultABCN__4/0 AC; 
          } 

object node {name   span_3648_n; phases ABCN; nominal_voltage 7200;  } 

object underground_line {
          name   span_41218; 
          from   T4979018_n; 
          to     span_41218_n; 
          phases AN; 
          length 75.254784; 
          configuration SystemCnstDefaultA__4/0AL UG; 
          } 

object node {name   span_41218_n; phases AN; nominal_voltage 120;  } 

object underground_line {
          name   span_41216; 
          from   span_41215_n; 
          to     span_41216_n; 
          phases AN; 
          length 355.85767; 
          configuration SystemCnstDefaultA__1/0 URD; 
          } 

object node {name   span_41216_n; phases AN; nominal_voltage 7200;  } 

object transformer {
          name   T4979020; 
          from   span_41216_n; 
          to     T4979020_n; 
          phases AN; 
          configuration SINGLE_PHASE-_15-7200To120V; 
          } 

object node {name   T4979020_n; phases AN; nominal_voltage 120;  } 

object underground_line {
          name   span_41212; 
          from   T4979020_n; 
          to     span_41212_n; 
          phases AN; 
          length 144.51645; 
          configuration SystemCnstDefaultA__4/0AL UG; 
          } 

object node {name   span_41212_n; phases AN; nominal_voltage 120;  } 

object underground_line {
          name   span_14568; 
          from   span_16408_n; 
          to     span_14568_n; 
          phases AN; 
          length 228.79849; 
          configuration SystemCnstDefaultA__1/0 URD; 
          } 

object node {name   span_14568_n; phases AN; nominal_voltage 7200;  } 

object transformer {
          name   T4979014; 
          from   span_14568_n; 
          to     T4979014_n; 
          phases AN; 
          configuration SINGLE_PHASE-_15-7200To120V; 
          } 

object node {name   T4979014_n; phases AN; nominal_voltage 120;  } 

object underground_line {
          name   span_41220; 
          from   T4979014_n; 
          to     span_41220_n; 
          phases AN; 
          length 86.343781; 
          configuration SystemCnstDefaultA__4/0AL UG; 
          } 

object node {name   span_41220_n; phases AN; nominal_voltage 120;  } 

object underground_line {
          name   span_41219; 
          from   T4979014_n; 
          to     span_41219_n; 
          phases AN; 
          length 88.377716; 
          configuration SystemCnstDefaultA__4/0AL UG; 
          } 

object node {name   span_41219_n; phases AN; nominal_voltage 120;  } 

object overhead_line {
          name   span_41213; 
          from   span_3657_n; 
          to     span_41213_n; 
          phases AN; 
          length 124.17589; 
          configuration SystemCnstDefaultAN__6 FCWC; 
          } 

object node {name   span_41213_n; phases AN; nominal_voltage 7200;  } 

object transformer {
          name   T4979079; 
          from   span_41213_n; 
          to     T4979079_n; 
          phases AN; 
          configuration SINGLE_PHASE-_15-7200To120V; 
          } 

object node {name   T4979079_n; phases AN; nominal_voltage 120;  } 

object overhead_line {
          name   span_41214; 
          from   T4979079_n; 
          to     span_41214_n; 
          phases AN; 
          length 53.218559; 
          configuration SystemCnstDefaultAN__1/0 Triplex; 
          } 

object node {name   span_41214_n; phases AN; nominal_voltage 120;  } 

object overhead_line {
          name   span_41221; 
          from   span_41213_n; 
          to     span_41221_n; 
          phases AN; 
          length 354.19287; 
          configuration SystemCnstDefaultAN__6 FCWC; 
          } 

object node {name   span_41221_n; phases AN; nominal_voltage 7200;  } 

object overhead_line {
          name   span_41222; 
          from   span_41221_n; 
          to     span_41222_n; 
          phases AN; 
          length 465.55539; 
          configuration SystemCnstDefaultAN__6 FCWC; 
          } 

object node {name   span_41222_n; phases AN; nominal_voltage 7200;  } 

object transformer {
          name   T4979008; 
          from   span_41222_n; 
          to     T4979008_n; 
          phases AN; 
          configuration SINGLE_PHASE-_15-7200To120V; 
          } 

object node {name   T4979008_n; phases AN; nominal_voltage 120;  } 

object overhead_line {
          name   span_41226; 
          from   T4979008_n; 
          to     span_41226_n; 
          phases AN; 
          length 151.82515; 
          configuration SystemCnstDefaultAN__1/0 Triplex; 
          } 

object node {name   span_41226_n; phases AN; nominal_voltage 120;  } 

object overhead_line {
          name   span_41225; 
          from   T4979008_n; 
          to     span_41225_n; 
          phases AN; 
          length 237.66959; 
          configuration SystemCnstDefaultAN__1/0 Triplex; 
          } 

object node {name   span_41225_n; phases AN; nominal_voltage 120;  } 

object overhead_line {
          name   span_41227; 
          from   T4979008_n; 
          to     span_41227_n; 
          phases AN; 
          length 171.94174; 
          configuration SystemCnstDefaultAN__1/0 Triplex; 
          } 

object node {name   span_41227_n; phases AN; nominal_voltage 120;  } 

object overhead_line {
          name   span_41228; 
          from   T4979008_n; 
          to     span_41228_n; 
          phases AN; 
          length 198.2811; 
          configuration SystemCnstDefaultAN__1/0 Triplex; 
          } 

object node {name   span_41228_n; phases AN; nominal_voltage 120;  } 

object overhead_line {
          name   span_7477; 
          from   span_41222_n; 
          to     span_7477_n; 
          phases AN; 
          length 166.00365; 
          configuration SystemCnstDefaultAN__6 FCWC; 
          } 

object node {name   span_7477_n; phases AN; nominal_voltage 7200;  } 

object overhead_line {
          name   span_41230; 
          from   span_7477_n; 
          to     span_41230_n; 
          phases AN; 
          length 173.2887; 
          configuration SystemCnstDefaultAN__6 FCWC; 
          } 

object node {name   span_41230_n; phases AN; nominal_voltage 7200;  } 

object transformer {
          name   T4979005; 
          from   span_41230_n; 
          to     T4979005_n; 
          phases AN; 
          configuration SINGLE_PHASE-_15-7200To120V; 
          } 

object node {name   T4979005_n; phases AN; nominal_voltage 120;  } 

object overhead_line {
          name   span_41232; 
          from   T4979005_n; 
          to     span_41232_n; 
          phases AN; 
          length 174.34172; 
          configuration SystemCnstDefaultAN__1/0 Triplex; 
          } 

object node {name   span_41232_n; phases AN; nominal_voltage 120;  } 

object overhead_line {
          name   span_41231; 
          from   span_41230_n; 
          to     span_41231_n; 
          phases AN; 
          length 129.98021; 
          configuration SystemCnstDefaultAN__6 FCWC; 
          } 

object node {name   span_41231_n; phases AN; nominal_voltage 7200;  } 

object overhead_line {
          name   span_5773; 
          from   span_41231_n; 
          to     span_5773_n; 
          phases AN; 
          length 301.52408; 
          configuration SystemCnstDefaultAN__6 FCWC; 
          } 

object node {name   span_5773_n; phases AN; nominal_voltage 7200;  } 

object overhead_line {
          name   span_807; 
          from   span_5773_n; 
          to     span_807_n; 
          phases AN; 
          length 198.18044; 
          configuration SystemCnstDefaultAN__6 FCWC; 
          } 

object node {name   span_807_n; phases AN; nominal_voltage 7200;  } 

object transformer {
          name   T4979073; 
          from   span_807_n; 
          to     T4979073_n; 
          phases AN; 
          configuration SINGLE_PHASE-_15-7200To120V; 
          } 

object node {name   T4979073_n; phases AN; nominal_voltage 120;  } 

object overhead_line {
          name   span_41229; 
          from   T4979073_n; 
          to     span_41229_n; 
          phases AN; 
          length 67.758667; 
          configuration SystemCnstDefaultAN__1/0 Triplex; 
          } 

object node {name   span_41229_n; phases AN; nominal_voltage 120;  } 

object overhead_line {
          name   span_3659; 
          from   span_5773_n; 
          to     span_3659_n; 
          phases AN; 
          length 515.26807; 
          configuration SystemCnstDefaultAN__6 FCWC; 
          } 

object node {name   span_3659_n; phases AN; nominal_voltage 7200;  } 

object fuse {
          name          F49-22-4; 
          from          span_3659_n; 
          to            F49-22-4_n; 
          phases        AN; 
          current_limit 26.4849; 
          mean_replacement_time 1.0 ; 
          repair_dist_type      NONE; 
          } 

object node {name   F49-22-4_n; phases AN; nominal_voltage 7200;  } 

object underground_line {
          name   span_16973; 
          from   F49-22-4_n; 
          to     span_16973_n; 
          phases AN; 
          length 176.02516; 
          configuration SystemCnstDefaultA__1/0 URD; 
          } 

object node {name   span_16973_n; phases AN; nominal_voltage 7200;  } 

object transformer {
          name   T4979001; 
          from   span_16973_n; 
          to     T4979001_n; 
          phases AN; 
          configuration SINGLE_PHASE-_15-7200To120V; 
          } 

object node {name   T4979001_n; phases AN; nominal_voltage 120;  } 

object underground_line {
          name   span_41233; 
          from   T4979001_n; 
          to     span_41233_n; 
          phases AN; 
          length 89.530151; 
          configuration SystemCnstDefaultA__4/0AL UG; 
          } 

object node {name   span_41233_n; phases AN; nominal_voltage 120;  } 

object underground_line {
          name   span_41234; 
          from   T4979001_n; 
          to     span_41234_n; 
          phases AN; 
          length 51.690926; 
          configuration SystemCnstDefaultA__4/0AL UG; 
          } 

object node {name   span_41234_n; phases AN; nominal_voltage 120;  } 

object transformer {
          name   T4979003; 
          from   span_41231_n; 
          to     T4979003_n; 
          phases AN; 
          configuration SINGLE_PHASE-_15-7200To120V; 
          } 

object node {name   T4979003_n; phases AN; nominal_voltage 120;  } 

object overhead_line {
          name   span_12275; 
          from   T4979003_n; 
          to     span_12275_n; 
          phases AN; 
          length 86.740128; 
          configuration SystemCnstDefaultAN__1/0 Triplex; 
          } 

object node {name   span_12275_n; phases AN; nominal_voltage 120;  } 

object overhead_line {
          name   span_49196; 
          from   span_49193_n; 
          to     span_49196_n; 
          phases AN; 
          length 1479; 
          configuration SystemCnstDefaultAN__1/0 AC; 
          } 

object node {name   span_49196_n; phases AN; nominal_voltage 7200;  } 

object overhead_line {
          name   span_41199; 
          from   span_49196_n; 
          to     span_41199_n; 
          phases AN; 
          length 264.36621; 
          configuration SystemCnstDefaultAN__1/0 AC; 
          } 

object node {name   span_41199_n; phases AN; nominal_voltage 7200;  } 

object transformer {
          name   T4987004; 
          from   span_41199_n; 
          to     T4987004_n; 
          phases AN; 
          configuration SINGLE_PHASE-_15-7200To120V; 
          } 

object node {name   T4987004_n; phases AN; nominal_voltage 120;  } 

object overhead_line {
          name   span_41201; 
          from   T4987004_n; 
          to     span_41201_n; 
          phases AN; 
          length 104.5843; 
          configuration SystemCnstDefaultAN__1/0 Triplex; 
          } 

object node {name   span_41201_n; phases AN; nominal_voltage 120;  } 

object overhead_line {
          name   span_41200; 
          from   T4987004_n; 
          to     span_41200_n; 
          phases AN; 
          length 101.69904; 
          configuration SystemCnstDefaultAN__1/0 Triplex; 
          } 

object node {name   span_41200_n; phases AN; nominal_voltage 120;  } 

object overhead_line {
          name   span_41202; 
          from   span_41199_n; 
          to     span_41202_n; 
          phases AN; 
          length 205.51627; 
          configuration SystemCnstDefaultAN__1/0 AC; 
          } 

object node {name   span_41202_n; phases AN; nominal_voltage 7200;  } 

object overhead_line {
          name   span_41204; 
          from   span_41202_n; 
          to     span_41204_n; 
          phases AN; 
          length 270.19913; 
          configuration SystemCnstDefaultAN__1/0 AC; 
          } 

object node {name   span_41204_n; phases AN; nominal_voltage 7200;  } 

object overhead_line {
          name   span_41207; 
          from   span_41204_n; 
          to     span_41207_n; 
          phases AN; 
          length 373.59897; 
          configuration SystemCnstDefaultAN__1/0 AC; 
          } 

object node {name   span_41207_n; phases AN; nominal_voltage 7200;  } 

object overhead_line {
          name   span_41208; 
          from   span_41207_n; 
          to     span_41208_n; 
          phases AN; 
          length 649.51642; 
          configuration SystemCnstDefaultAN__1/0 AC; 
          } 

object node {name   span_41208_n; phases AN; nominal_voltage 7200;  } 

object overhead_line {
          name   span_804; 
          from   span_41208_n; 
          to     span_804_n; 
          phases AN; 
          length 888.42041; 
          configuration SystemCnstDefaultAN__6 FCWC; 
          } 

object node {name   span_804_n; phases AN; nominal_voltage 7200;  } 

object underground_line {
          name   span_16969; 
          from   span_804_n; 
          to     span_16969_n; 
          phases AN; 
          length 22.133495; 
          configuration SystemCnstDefaultA__1/0 URD; 
          } 

object node {name   span_16969_n; phases AN; nominal_voltage 7200;  } 

object fuse {
          name          F49-23-2; 
          from          span_16969_n; 
          to            F49-23-2_n; 
          phases        AN; 
          current_limit 54.4366; 
          mean_replacement_time 1.0 ; 
          repair_dist_type      NONE; 
          } 

object node {name   F49-23-2_n; phases AN; nominal_voltage 7200;  } 

object underground_line {
          name   span_48902; 
          from   F49-23-2_n; 
          to     span_48902_n; 
          phases AN; 
          length 558; 
          configuration SystemCnstDefaultA__1/0 URD; 
          } 

object node {name   span_48902_n; phases AN; nominal_voltage 7200;  } 

object underground_line {
          name   span_48903; 
          from   span_48902_n; 
          to     span_48903_n; 
          phases AN; 
          length 418; 
          configuration SystemCnstDefaultA__1/0 URD; 
          } 

object node {name   span_48903_n; phases AN; nominal_voltage 7200;  } 

object transformer {
          name   T4987011; 
          from   span_48903_n; 
          to     T4987011_n; 
          phases AN; 
          configuration SINGLE_PHASE-_15-7200To120V; 
          } 

object node {name   T4987011_n; phases AN; nominal_voltage 120;  } 

object underground_line {
          name   span_41240; 
          from   serv_17133_n; 
          to     span_41240_n; 
          phases AN; 
          length 124.59924; 
          configuration SystemCnstDefaultA__4/0AL UG; 
          } 

object node {name   span_41240_n; phases AN; nominal_voltage 120;  } 

object underground_line {
          name   span_48904; 
          from   span_48903_n; 
          to     span_48904_n; 
          phases AN; 
          length 396; 
          configuration SystemCnstDefaultA__1/0 URD; 
          } 

object node {name   span_48904_n; phases AN; nominal_voltage 7200;  } 

object underground_line {
          name   span_48905; 
          from   span_48904_n; 
          to     span_48905_n; 
          phases AN; 
          length 298; 
          configuration SystemCnstDefaultA__1/0 URD; 
          } 

object node {name   span_48905_n; phases AN; nominal_voltage 7200;  } 

object transformer {
          name   T4987009; 
          from   span_48905_n; 
          to     T4987009_n; 
          phases AN; 
          configuration SINGLE_PHASE-_15-7200To120V; 
          } 

object node {name   T4987009_n; phases AN; nominal_voltage 120;  } 

object underground_line {
          name   span_41236; 
          from   serv_17135_n; 
          to     span_41236_n; 
          phases AN; 
          length 124.15873; 
          configuration SystemCnstDefaultA__4/0AL UG; 
          } 

object node {name   span_41236_n; phases AN; nominal_voltage 120;  } 

object underground_line {
          name   span_41237; 
          from   serv_17134_n; 
          to     span_41237_n; 
          phases AN; 
          length 200.81625; 
          configuration SystemCnstDefaultA__4/0AL UG; 
          } 

object node {name   span_41237_n; phases AN; nominal_voltage 120;  } 

object underground_line {
          name   span_15744; 
          from   F49-23-2_n; 
          to     span_15744_n; 
          phases AN; 
          length 244.30322; 
          configuration SystemCnstDefaultA__1/0 URD; 
          } 

object node {name   span_15744_n; phases AN; nominal_voltage 7200;  } 

object transformer {
          name   T4987014; 
          from   span_15744_n; 
          to     T4987014_n; 
          phases AN; 
          configuration SINGLE_PHASE-_15-7200To120V; 
          } 

object node {name   T4987014_n; phases AN; nominal_voltage 120;  } 

object underground_line {
          name   span_24116; 
          from   T4987014_n; 
          to     span_24116_n; 
          phases AN; 
          length 67.556435; 
          configuration SystemCnstDefaultA__1/0AL UD; 
          } 

object node {name   span_24116_n; phases AN; nominal_voltage 120;  } 

object fuse {
          name          F49-22-1; 
          from          span_41208_n; 
          to            F49-22-1_n; 
          phases        AN; 
          current_limit 54.4366; 
          mean_replacement_time 1.0 ; 
          repair_dist_type      NONE; 
          } 

object node {name   F49-22-1_n; phases AN; nominal_voltage 7200;  } 

object overhead_line {
          name   span_3657; 
          from   F49-22-1_n; 
          to     span_3657_n; 
          phases AN; 
          length 650.91943; 
          configuration SystemCnstDefaultAN__6 FCWC; 
          } 

object node {name   span_3657_n; phases AN; nominal_voltage 7200;  } 

object fuse {
          name          F49-22-2; 
          from          span_3657_n; 
          to            F49-22-2_n; 
          phases        AN; 
          current_limit 26.4849; 
          mean_replacement_time 1.0 ; 
          repair_dist_type      NONE; 
          } 

object node {name   F49-22-2_n; phases AN; nominal_voltage 7200;  } 

object underground_line {
          name   span_16408; 
          from   F49-22-2_n; 
          to     span_16408_n; 
          phases AN; 
          length 97.688591; 
          configuration SystemCnstDefaultA__1/0 URD; 
          } 

object node {name   span_16408_n; phases AN; nominal_voltage 7200;  } 

object underground_line {
          name   span_20591; 
          from   span_16408_n; 
          to     span_20591_n; 
          phases AN; 
          length 378.29617; 
          configuration SystemCnstDefaultA__1/0 URD; 
          } 

object node {name   span_20591_n; phases AN; nominal_voltage 7200;  } 

object transformer {
          name   T4979016; 
          from   span_20591_n; 
          to     T4979016_n; 
          phases AN; 
          configuration SINGLE_PHASE-_15-7200To120V; 
          } 

object node {name   T4979016_n; phases AN; nominal_voltage 120;  } 

object underground_line {
          name   span_23710; 
          from   T4979016_n; 
          to     span_23710_n; 
          phases AN; 
          length 65.758194; 
          configuration SystemCnstDefaultA__1/0AL UD; 
          } 

object node {name   span_23710_n; phases AN; nominal_voltage 120;  } 

object underground_line {
          name   span_23709; 
          from   T4979016_n; 
          to     span_23709_n; 
          phases AN; 
          length 78.463882; 
          configuration SystemCnstDefaultA__1/0AL UD; 
          } 

object node {name   span_23709_n; phases AN; nominal_voltage 120;  } 

object underground_line {
          name   span_41215; 
          from   span_20591_n; 
          to     span_41215_n; 
          phases AN; 
          length 608.05145; 
          configuration SystemCnstDefaultA__1/0 URD; 
          } 

object node {name   span_41215_n; phases AN; nominal_voltage 7200;  } 

object transformer {
          name   T4979018; 
          from   span_41215_n; 
          to     T4979018_n; 
          phases AN; 
          configuration SINGLE_PHASE-_15-7200To120V; 
          } 

object node {name   T4979018_n; phases AN; nominal_voltage 120;  } 

object underground_line {
          name   span_41217; 
          from   T4979018_n; 
          to     span_41217_n; 
          phases AN; 
          length 93.936111; 
          configuration SystemCnstDefaultA__4/0AL UG; 
          } 

object node {name   span_41217_n; phases AN; nominal_voltage 120;  } 

object overhead_line {
          name   span_3639; 
          from   span_8425_n; 
          to     span_3639_n; 
          phases AN; 
          length 533.29938; 
          configuration SystemCnstDefaultAN__4 AC; 
          } 

object node {name   span_3639_n; phases AN; nominal_voltage 7200;  } 

object overhead_line {
          name   span_3638; 
          from   span_3639_n; 
          to     span_3638_n; 
          phases AN; 
          length 279.61713; 
          configuration SystemCnstDefaultAN__4 AC; 
          } 

object node {name   span_3638_n; phases AN; nominal_voltage 7200;  } 

object overhead_line {
          name   span_3637; 
          from   span_3638_n; 
          to     span_3637_n; 
          phases AN; 
          length 7.9241223; 
          configuration SystemCnstDefaultAN__4 AC; 
          } 

object node {name   span_3637_n; phases AN; nominal_voltage 7200;  } 

object overhead_line {
          name   span_3636; 
          from   span_3637_n; 
          to     span_3636_n; 
          phases AN; 
          length 1.2855862; 
          configuration SystemCnstDefaultAN__4 AC; 
          } 

object node {name   span_3636_n; phases AN; nominal_voltage 7200;  } 

object overhead_line {
          name   span_3634; 
          from   span_3637_n; 
          to     span_3634_n; 
          phases AN; 
          length 562.65027; 
          configuration SystemCnstDefaultAN__4 AC; 
          } 

object node {name   span_3634_n; phases AN; nominal_voltage 7200;  } 

object fuse {
          name          F49-22-6; 
          from          span_3634_n; 
          to            F49-22-6_n; 
          phases        AN; 
          current_limit 19.168053; 
          mean_replacement_time 1.0 ; 
          repair_dist_type      NONE; 
          } 

object node {name   F49-22-6_n; phases AN; nominal_voltage 7200;  } 

object underground_line {
          name   span_16938; 
          from   F49-22-6_n; 
          to     span_16938_n; 
          phases AN; 
          length 299.77002; 
          configuration SystemCnstDefaultA__1/0 URD; 
          } 

object node {name   span_16938_n; phases AN; nominal_voltage 7200;  } 

object transformer {
          name   T4980004; 
          from   span_16938_n; 
          to     T4980004_n; 
          phases AN; 
          configuration SINGLE_PHASE-_15-7200To120V; 
          } 

object node {name   T4980004_n; phases AN; nominal_voltage 120;  } 

object underground_line {
          name   span_41188; 
          from   T4980004_n; 
          to     span_41188_n; 
          phases AN; 
          length 66.172928; 
          configuration SystemCnstDefaultA__4/0AL UG; 
          } 

object node {name   span_41188_n; phases AN; nominal_voltage 120;  } 

object overhead_line {
          name   span_3633; 
          from   span_3634_n; 
          to     span_3633_n; 
          phases AN; 
          length 161.74953; 
          configuration SystemCnstDefaultAN__4 AC; 
          } 

object node {name   span_3633_n; phases AN; nominal_voltage 7200;  } 

object transformer {
          name   T4980005; 
          from   span_3633_n; 
          to     T4980005_n; 
          phases AN; 
          configuration SINGLE_PHASE-_15-7200To120V; 
          } 

object node {name   T4980005_n; phases AN; nominal_voltage 120;  } 

object overhead_line {
          name   span_41190; 
          from   T4980005_n; 
          to     span_41190_n; 
          phases AN; 
          length 161.60307; 
          configuration SystemCnstDefaultAN__1/0 Triplex; 
          } 

object node {name   span_41190_n; phases AN; nominal_voltage 120;  } 

object overhead_line {
          name   span_41189; 
          from   T4980005_n; 
          to     span_41189_n; 
          phases AN; 
          length 155.94659; 
          configuration SystemCnstDefaultAN__1/0 Triplex; 
          } 

object node {name   span_41189_n; phases AN; nominal_voltage 120;  } 

object overhead_line {
          name   span_805; 
          from   span_3638_n; 
          to     span_805_n; 
          phases AN; 
          length 345.96567; 
          configuration SystemCnstDefaultAN__4 AC; 
          } 

object node {name   span_805_n; phases AN; nominal_voltage 7200;  } 

object transformer {
          name   T4980001; 
          from   span_805_n; 
          to     T4980001_n; 
          phases AN; 
          configuration SINGLE_PHASE-_15-7200To120V; 
          } 

object node {name   T4980001_n; phases AN; nominal_voltage 120;  } 

object overhead_line {
          name   span_41187; 
          from   T4980001_n; 
          to     span_41187_n; 
          phases AN; 
          length 404.30414; 
          configuration SystemCnstDefaultAN__1/0 Triplex; 
          } 

object node {name   span_41187_n; phases AN; nominal_voltage 120;  } 

object overhead_line {
          name   span_41186; 
          from   T4980001_n; 
          to     span_41186_n; 
          phases AN; 
          length 300.67517; 
          configuration SystemCnstDefaultAN__1/0 Triplex; 
          } 

object node {name   span_41186_n; phases AN; nominal_voltage 120;  } 

object overhead_line {
          name   span_41185; 
          from   serv_17132_n; 
          to     span_41185_n; 
          phases AN; 
          length 131.02304; 
          configuration SystemCnstDefaultAN__1/0 Triplex; 
          } 

object node {name   span_41185_n; phases AN; nominal_voltage 120;  } 

object fuse {
          name          F49-22-11; 
          from          span_805_n; 
          to            F49-22-11_n; 
          phases        AN; 
          current_limit 19.168053; 
          mean_replacement_time 1.0 ; 
          repair_dist_type      NONE; 
          } 

object node {name   F49-22-11_n; phases AN; nominal_voltage 7200;  } 

object underground_line {
          name   span_50564; 
          from   F49-22-11_n; 
          to     span_50564_n; 
          phases AN; 
          length 69; 
          configuration SystemCnstDefaultA__1/0 URD; 
          } 

object node {name   span_50564_n; phases AN; nominal_voltage 7200;  } 

object transformer {
          name   T4980071; 
          from   span_50564_n; 
          to     T4980071_n; 
          phases AN; 
          configuration SINGLE_PHASE-_15-7200To120V; 
          } 

object node {name   T4980071_n; phases AN; nominal_voltage 120;  } 

object underground_line {
          name   span_50565; 
          from   serv_17130_n; 
          to     span_50565_n; 
          phases AN; 
          length 64; 
          configuration SystemCnstDefaultA__4/0AL UG; 
          } 

object node {name   span_50565_n; phases AN; nominal_voltage 120;  } 

object fuse {
          name          F49-22-5; 
          from          span_3639_n; 
          to            F49-22-5_n; 
          phases        AN; 
          current_limit 19.168053; 
          mean_replacement_time 1.0 ; 
          repair_dist_type      NONE; 
          } 

object node {name   F49-22-5_n; phases AN; nominal_voltage 7200;  } 

object underground_line {
          name   span_16936; 
          from   F49-22-5_n; 
          to     span_16936_n; 
          phases AN; 
          length 194.09543; 
          configuration SystemCnstDefaultA__1/0 URD; 
          } 

object node {name   span_16936_n; phases AN; nominal_voltage 7200;  } 

object transformer {
          name   T4980058; 
          from   span_16936_n; 
          to     T4980058_n; 
          phases AN; 
          configuration SINGLE_PHASE-_15-7200To120V; 
          } 

object node {name   T4980058_n; phases AN; nominal_voltage 120;  } 

object underground_line {
          name   span_41184; 
          from   T4980058_n; 
          to     span_41184_n; 
          phases AN; 
          length 70.342804; 
          configuration SystemCnstDefaultA__4/0AL UG; 
          } 

object node {name   span_41184_n; phases AN; nominal_voltage 120;  } 

object overhead_line {
          name   span_7488; 
          from   span_2429_n; 
          to     span_7488_n; 
          phases AN; 
          length 65.479004; 
          configuration SystemCnstDefaultAN__1/0 AC; 
          } 

object node {name   span_7488_n; phases AN; nominal_voltage 7200;  } 

object transformer {
          name   T4988005; 
          from   span_7488_n; 
          to     T4988005_n; 
          phases AN; 
          configuration SINGLE_PHASE-_15-7200To120V; 
          } 

object node {name   T4988005_n; phases AN; nominal_voltage 120;  } 

object overhead_line {
          name   span_41176; 
          from   T4988005_n; 
          to     span_41176_n; 
          phases AN; 
          length 75.580688; 
          configuration SystemCnstDefaultAN__1/0 Triplex; 
          } 

object node {name   span_41176_n; phases AN; nominal_voltage 120;  } 

object overhead_line {
          name   span_41177; 
          from   span_41176_n; 
          to     span_41177_n; 
          phases AN; 
          length 95.372711; 
          configuration SystemCnstDefaultAN__1/0 Triplex; 
          } 

object node {name   span_41177_n; phases AN; nominal_voltage 120;  } 

object overhead_line {
          name   span_41178; 
          from   span_41177_n; 
          to     span_41178_n; 
          phases AN; 
          length 51.039932; 
          configuration SystemCnstDefaultAN__1/0 Triplex; 
          } 

object node {name   span_41178_n; phases AN; nominal_voltage 120;  } 

object overhead_line {
          name   span_41175; 
          from   T4988005_n; 
          to     span_41175_n; 
          phases AN; 
          length 65.674278; 
          configuration SystemCnstDefaultAN__1/0 Triplex; 
          } 

object node {name   span_41175_n; phases AN; nominal_voltage 120;  } 

object overhead_line {
          name   span_41193; 
          from   span_7488_n; 
          to     span_41193_n; 
          phases AN; 
          length 1341.7461; 
          configuration SystemCnstDefaultAN__1/0 AC; 
          } 

object node {name   span_41193_n; phases AN; nominal_voltage 7200;  } 

object overhead_line {
          name   span_41195; 
          from   span_41193_n; 
          to     span_41195_n; 
          phases AN; 
          length 303.06259; 
          configuration SystemCnstDefaultAN__1/0 AC; 
          } 

object node {name   span_41195_n; phases AN; nominal_voltage 7200;  } 

object overhead_line {
          name   span_49193; 
          from   span_41195_n; 
          to     span_49193_n; 
          phases AN; 
          length 369; 
          configuration SystemCnstDefaultAN__1/0 AC; 
          } 

object node {name   span_49193_n; phases AN; nominal_voltage 7200;  } 

object underground_line {
          name   span_43112; 
          from   serv_64587_n; 
          to     span_43112_n; 
          phases AN; 
          length 87.493332; 
          configuration SystemCnstDefaultA__4/0AL UG; 
          } 

object node {name   span_43112_n; phases AN; nominal_voltage 120;  } 

object overhead_line {
          name   span_42023; 
          from   span_42029_n; 
          to     span_42023_n; 
          phases AN; 
          length 359.92145; 
          configuration SystemCnstDefaultAN__6 FCWC; 
          } 

object node {name   span_42023_n; phases AN; nominal_voltage 7200;  } 

object transformer {
          name   T4989013; 
          from   span_42023_n; 
          to     T4989013_n; 
          phases AN; 
          configuration SINGLE_PHASE-_10-7200To120V; 
          } 

object node {name   T4989013_n; phases AN; nominal_voltage 119.99999;  } 

object overhead_line {
          name   span_42022; 
          from   T4989013_n; 
          to     span_42022_n; 
          phases AN; 
          length 168.24608; 
          configuration SystemCnstDefaultAN__1/0 Triplex; 
          } 

object node {name   span_42022_n; phases AN; nominal_voltage 119.99999;  } 

object transformer {
          name   T4989020; 
          from   span_18347_n; 
          to     T4989020_n; 
          phases AN; 
          configuration SINGLE_PHASE-_10-7200To120V; 
          } 

object node {name   T4989020_n; phases AN; nominal_voltage 119.99999;  } 

object overhead_line {
          name   span_42032; 
          from   T4989020_n; 
          to     span_42032_n; 
          phases AN; 
          length 191.18803; 
          configuration SystemCnstDefaultAN__1/0 Triplex; 
          } 

object node {name   span_42032_n; phases AN; nominal_voltage 119.99999;  } 

object overhead_line {
          name   span_42033; 
          from   T4989020_n; 
          to     span_42033_n; 
          phases AN; 
          length 179.91872; 
          configuration SystemCnstDefaultAN__1/0 Triplex; 
          } 

object node {name   span_42033_n; phases AN; nominal_voltage 119.99999;  } 

object overhead_line {
          name   span_3600; 
          from   span_45929_n; 
          to     span_3600_n; 
          phases ABCN; 
          length 190.53278; 
          configuration SystemCnstDefaultABCN__4/0 AC; 
          } 

object node {name   span_3600_n; phases ABCN; nominal_voltage 7200;  } 

object overhead_line {
          name   span_12145; 
          from   span_3600_n; 
          to     span_12145_n; 
          phases ABCN; 
          length 278.33261; 
          configuration SystemCnstDefaultABCN__4/0 AC; 
          } 

object node {name   span_12145_n; phases ABCN; nominal_voltage 7200;  } 

object overhead_line {
          name   span_41154; 
          from   span_12145_n; 
          to     span_41154_n; 
          phases ABCN; 
          length 346.07471; 
          configuration SystemCnstDefaultABCN__4/0 AC; 
          } 

object node {name   span_41154_n; phases ABCN; nominal_voltage 7200;  } 

object overhead_line {
          name   span_41155; 
          from   span_41154_n; 
          to     span_41155_n; 
          phases ABCN; 
          length 352.72266; 
          configuration SystemCnstDefaultABCN__4/0 AC; 
          } 

object node {name   span_41155_n; phases ABCN; nominal_voltage 7200;  } 

object overhead_line {
          name   span_3607; 
          from   span_41155_n; 
          to     span_3607_n; 
          phases ABCN; 
          length 669.96393; 
          configuration SystemCnstDefaultABCN__4/0 AC; 
          } 

object node {name   span_3607_n; phases ABCN; nominal_voltage 7200;  } 

object overhead_line {
          name   span_3610; 
          from   span_3607_n; 
          to     span_3610_n; 
          phases ABCN; 
          length 318.02963; 
          configuration SystemCnstDefaultABCN__4/0 AC; 
          } 

object node {name   span_3610_n; phases ABCN; nominal_voltage 7200;  } 

object overhead_line {
          name   span_3611; 
          from   span_3610_n; 
          to     span_3611_n; 
          phases ABCN; 
          length 197.42528; 
          configuration SystemCnstDefaultABCN__4/0 AC; 
          } 

object node {name   span_3611_n; phases ABCN; nominal_voltage 7200;  } 

object overhead_line {
          name   span_3614; 
          from   span_3611_n; 
          to     span_3614_n; 
          phases ABCN; 
          length 239.55173; 
          configuration SystemCnstDefaultABCN__4/0 AC; 
          } 

object node {name   span_3614_n; phases ABCN; nominal_voltage 7200;  } 

object overhead_line {
          name   span_3615; 
          from   span_3614_n; 
          to     span_3615_n; 
          phases ABCN; 
          length 1274.0897; 
          configuration SystemCnstDefaultABCN__4/0 AC; 
          } 

object node {name   span_3615_n; phases ABCN; nominal_voltage 7200;  } 

object overhead_line {
          name   span_41171; 
          from   span_3615_n; 
          to     span_41171_n; 
          phases ABCN; 
          length 356.46463; 
          configuration SystemCnstDefaultABCN__4/0 AC; 
          } 

object node {name   span_41171_n; phases ABCN; nominal_voltage 7200;  } 

object overhead_line {
          name   span_41172; 
          from   span_41171_n; 
          to     span_41172_n; 
          phases ABCN; 
          length 834.68378; 
          configuration SystemCnstDefaultABCN__4/0 AC; 
          } 

object node {name   span_41172_n; phases ABCN; nominal_voltage 7200;  } 

object overhead_line {
          name   span_12141; 
          from   span_41172_n; 
          to     span_12141_n; 
          phases ABCN; 
          length 148.34953; 
          configuration SystemCnstDefaultABCN__4/0 AC; 
          } 

object node {name   span_12141_n; phases ABCN; nominal_voltage 7200;  } 

object overhead_line {
          name   span_12143; 
          from   span_12141_n; 
          to     span_12143_n; 
          phases ABCN; 
          length 251.34805; 
          configuration SystemCnstDefaultABCN__4/0 AC; 
          } 

object node {name   span_12143_n; phases ABCN; nominal_voltage 7200;  } 

object overhead_line {
          name   span_12142; 
          from   span_12143_n; 
          to     span_12142_n; 
          phases ABCN; 
          length 226.96049; 
          configuration SystemCnstDefaultABCN__4/0 AC; 
          } 

object node {name   span_12142_n; phases ABCN; nominal_voltage 7200;  } 

object recloser {
          name                R49-23-3; 
          from                span_12142_n; 
          to                  R49-23-3_n; 
          phases              AN; 
          max_number_of_tries 2; 
          } 

object node {name   R49-23-3_n; phases AN; nominal_voltage 7200;  } 

object overhead_line {
          name   span_2429; 
          from   R49-23-3_n; 
          to     span_2429_n; 
          phases AN; 
          length 225.93105; 
          configuration SystemCnstDefaultAN__1/0 AC; 
          } 

object node {name   span_2429_n; phases AN; nominal_voltage 7200;  } 

object fuse {
          name          F49-23-1; 
          from          span_2429_n; 
          to            F49-23-1_n; 
          phases        AN; 
          current_limit 54.4366; 
          mean_replacement_time 1.0 ; 
          repair_dist_type      NONE; 
          } 

object node {name   F49-23-1_n; phases AN; nominal_voltage 7200;  } 

object overhead_line {
          name   span_8426; 
          from   F49-23-1_n; 
          to     span_8426_n; 
          phases AN; 
          length 1396.8153; 
          configuration SystemCnstDefaultAN__4 AC; 
          } 

object node {name   span_8426_n; phases AN; nominal_voltage 7200;  } 

object overhead_line {
          name   span_8425; 
          from   span_8426_n; 
          to     span_8425_n; 
          phases AN; 
          length 751.04504; 
          configuration SystemCnstDefaultAN__4 AC; 
          } 

object node {name   span_8425_n; phases AN; nominal_voltage 7200;  } 

object overhead_line {
          name   span_9084; 
          from   span_8425_n; 
          to     span_9084_n; 
          phases AN; 
          length 110.40834; 
          configuration SystemCnstDefaultAN__4 AC; 
          } 

object node {name   span_9084_n; phases AN; nominal_voltage 7200;  } 

object overhead_line {
          name   span_9085; 
          from   span_9084_n; 
          to     span_9085_n; 
          phases AN; 
          length 141.49516; 
          configuration SystemCnstDefaultAN__4 AC; 
          } 

object node {name   span_9085_n; phases AN; nominal_voltage 7200;  } 

object overhead_line {
          name   span_41179; 
          from   span_9085_n; 
          to     span_41179_n; 
          phases AN; 
          length 321.97672; 
          configuration SystemCnstDefaultAN__4 AC; 
          } 

object node {name   span_41179_n; phases AN; nominal_voltage 7200;  } 

object transformer {
          name   T4988015; 
          from   span_41179_n; 
          to     T4988015_n; 
          phases AN; 
          configuration SINGLE_PHASE-_15-7200To120V; 
          } 

object node {name   T4988015_n; phases AN; nominal_voltage 120;  } 

object overhead_line {
          name   span_41181; 
          from   serv_17131_n; 
          to     span_41181_n; 
          phases AN; 
          length 193.47218; 
          configuration SystemCnstDefaultAN__1/0 Triplex; 
          } 

object node {name   span_41181_n; phases AN; nominal_voltage 120;  } 

object overhead_line {
          name   span_41180; 
          from   span_41179_n; 
          to     span_41180_n; 
          phases AN; 
          length 324.57935; 
          configuration SystemCnstDefaultAN__4 AC; 
          } 

object node {name   span_41180_n; phases AN; nominal_voltage 7200;  } 

object transformer {
          name   T4988003; 
          from   span_41180_n; 
          to     T4988003_n; 
          phases AN; 
          configuration SINGLE_PHASE-_15-7200To120V; 
          } 

object node {name   T4988003_n; phases AN; nominal_voltage 120;  } 

object overhead_line {
          name   span_41182; 
          from   T4988003_n; 
          to     span_41182_n; 
          phases AN; 
          length 178.62045; 
          configuration SystemCnstDefaultAN__1/0 Triplex; 
          } 

object node {name   span_41182_n; phases AN; nominal_voltage 120;  } 

object overhead_line {
          name   span_41183; 
          from   T4988003_n; 
          to     span_41183_n; 
          phases AN; 
          length 86.108452; 
          configuration SystemCnstDefaultAN__1/0 Triplex; 
          } 

object node {name   span_41183_n; phases AN; nominal_voltage 120;  } 

object overhead_line {
          name   span_54514; 
          from   span_54513_n; 
          to     span_54514_n; 
...